<?xml version="1.0" encoding="UTF-8"?>

<!-- generated on 2025-03-12 12:45:25 by Eclipse SUMO netedit Version 1.22.0
<neteditConfiguration xmlns:xsi="http://www.w3.org/2001/XMLSchema-instance" xsi:noNamespaceSchemaLocation="http://sumo.dlr.de/xsd/neteditConfiguration.xsd">

    <input>
        <sumo-net-file value="/Users/soheil/OneDrive - UW/8 quarter WI 25/CET593 Transportation Systems Analysis/project_2/UW_CET593_project2/environment/network_model/UW_intersection_pedestrian_X.net.xml"/>
    </input>

    <processing>
        <geometry.min-radius.fix.railways value="false"/>
        <geometry.max-grade.fix value="false"/>
        <offset.disable-normalization value="true"/>
        <lefthand value="0"/>
    </processing>

    <junctions>
        <no-internal-links value="false"/>
        <no-turnarounds value="true"/>
        <junctions.corner-detail value="5"/>
        <junctions.limit-turn-speed value="5.50"/>
        <rectangular-lane-cut value="0"/>
    </junctions>

    <pedestrian>
        <walkingareas value="0"/>
    </pedestrian>

</neteditConfiguration>
-->

<additional xmlns:xsi="http://www.w3.org/2001/XMLSchema-instance" xsi:noNamespaceSchemaLocation="http://sumo.dlr.de/xsd/additional_file.xsd">
    <tlLogic id="1" type="actuated" programID="actuated_program" offset="0">
        <phase duration="7"  state="rrrGrrrrrrGrrrrrrrrr" minDur="4" maxDur="9"/>
        <phase duration="20" state="gGGgrrrgGGgrrrrrrrrr" minDur="4" maxDur="21"/>
        <phase duration="3.50"  state="yyyyrrryyyyrrrrryrry"/>
        <phase duration="0.50"  state="rrrrrrrrrrrrrrrrrrrr"/>
        <phase duration="15" state="rrrrgGgrrrrgGgrrrrrr" minDur="4" maxDur="20"/>
        <phase duration="3.50"  state="rrrryyyrrrryyyyrrryr"/>
        <phase duration="0.50"  state="rrrrrrrrrrrrrrrrrrrr"/>
        <phase duration="20" state="rrrrrrrrrrrrrrGGGGGG" minDur="10" maxDur="35"/>
    </tlLogic>
</additional>
