<?xml version="1.0" encoding="UTF-8"?>

<!-- generated on 2025-03-11 20:17:54 by Eclipse SUMO netedit Version 1.22.0
<neteditConfiguration xmlns:xsi="http://www.w3.org/2001/XMLSchema-instance" xsi:noNamespaceSchemaLocation="http://sumo.dlr.de/xsd/neteditConfiguration.xsd">

    <input>
        <sumo-net-file value="/Users/soheil/OneDrive - UW/8 quarter WI 25/CET593 Transportation Systems Analysis/project_2/UW_CET593_project2/environment/network_model/UW_intersection_pedestrian_X.net.xml"/>
    </input>

    <processing>
        <geometry.min-radius.fix.railways value="false"/>
        <geometry.max-grade.fix value="false"/>
        <offset.disable-normalization value="true"/>
        <lefthand value="0"/>
    </processing>

    <junctions>
        <no-internal-links value="false"/>
        <no-turnarounds value="true"/>
        <junctions.corner-detail value="5"/>
        <junctions.limit-turn-speed value="5.50"/>
        <rectangular-lane-cut value="0"/>
    </junctions>

    <pedestrian>
        <walkingareas value="0"/>
    </pedestrian>

</neteditConfiguration>
-->

<additional xmlns:xsi="http://www.w3.org/2001/XMLSchema-instance" xsi:noNamespaceSchemaLocation="http://sumo.dlr.de/xsd/additional_file.xsd">
    <tlLogic id="1" type="static" programID="my_program" offset="0">
        <phase duration="3"  state="rrrrrrrgGGGrrrrrGrrrrr"/>
        <phase duration="30" state="gGGrrrrgGGrrrrrrGrrGrr"/>
        <phase duration="3"  state="gGGgrrrgGGgrrrrrGrrGrr"/>
        <phase duration="10" state="gGGGgrrrrrrrrrrrrrrGrr"/>
        <phase duration="10" state="rrrGgrrrrrGrrrrrrrrrrr"/>
        <phase duration="10" state="rrrrgrrrrrrgGGrrrrGrrr"/>
        <phase duration="30" state="rrrrgGGrrrrrrrGrrrrrrr"/>
        <phase duration="10" state="rrrrgGgrrrrgGgGrrrGrrr"/>
        <phase duration="10" state="rrrrrrrrrrrrrrGGGGGGGG"/>
        <phase duration="5"  state="rrrrrrryyyyrrrrrrrrrrr"/>
        <phase duration="5"  state="yyyrrrryyyrrrrrrrrrrrr"/>
        <phase duration="5"  state="yyyyrrryyyyrrrrrrrrrrr"/>
        <phase duration="5"  state="yyyyyrrrrrrrrrrrrrrrrr"/>
        <phase duration="5"  state="rrryyrrrrryrrrrrrrrrrr"/>
        <phase duration="2"  state="rrrryrrrrrryyyrrrrrrrr"/>
        <phase duration="2"  state="rrrryyyrrrrrrrrrrrrrrr"/>
        <phase duration="2"  state="rrrryyyrrrryyyrrrrrrrr"/>
        <phase duration="20" state="rrrrrrrrrrrrrrrrrrrrrr"/>
    </tlLogic>
</additional>
