<?xml version="1.0" encoding="UTF-8"?>

<!-- generated on 2025-03-10 16:11:57 by Eclipse SUMO netedit Version 1.22.0
-->

<routes xmlns:xsi="http://www.w3.org/2001/XMLSchema-instance" xsi:noNamespaceSchemaLocation="http://sumo.dlr.de/xsd/routes_file.xsd">
    <vType id="cars" accel="3" decel="5" sigma="1" length="5" minGap="2" maxSpeed="13" guiShape="passenger"/>
    <!-- Routes -->
    <route id="NS" edges="5_1 1_3"/>
    <route id="NE" edges="5_1 1_4"/>
    <route id="NW" edges="5_1 1_2"/>
    <route id="SN" edges="3_1 1_5"/>
    <route id="SE" edges="3_1 1_4"/>
    <route id="SW" edges="3_1 1_2"/>
    <route id="EW" edges="4_1 1_2"/>
    <route id="EN" edges="4_1 1_5"/>
    <route id="ES" edges="4_1 1_3"/>


    <flow id="EN" begin="0.00" departLane="random" from="4_1" to="1_5" end="600.00" vehsPerHour="24"/>
    <flow id="ES" begin="0.00" departLane="random" from="4_1" to="1_3" end="600.00" vehsPerHour="6"/>
    <flow id="EW" begin="0.00" departLane="random" from="4_1" to="1_2" end="600.00" vehsPerHour="24"/>
    <flow id="NE" begin="0.00" departLane="random" from="5_1" to="1_4" end="600.00" vehsPerHour="24"/>
    <flow id="NS" begin="0.00" departLane="random" from="5_1" to="1_3" end="600.00" vehsPerHour="192"/>
    <flow id="NW" begin="0.00" departLane="random" from="5_1" to="1_2" end="600.00" vehsPerHour="72"/>
    <flow id="SE" begin="0.00" departLane="random" from="3_1" to="1_4" end="600.00" vehsPerHour="65.99"/>
    <flow id="SN" begin="0.00" departLane="random" from="3_1" to="1_5" end="600.00" vehsPerHour="132"/>
    <flow id="SW" begin="0.00" departLane="random" from="3_1" to="1_2" end="600.00" vehsPerHour="12"/>
    <flow id="WE" begin="0.00" departLane="random" from="2_1" to="1_4" end="600.00" vehsPerHour="72"/>
    <flow id="WN" begin="0.00" departLane="random" from="2_1" to="1_5" end="600.00" vehsPerHour="12"/>
    <flow id="WS" begin="0.00" departLane="random" from="2_1" to="1_3" end="600.00" vehsPerHour="54"/>



            <personFlow id="person_WE_s" begin="0" end="600" period="exp(0.117)" departPos="100">
                <walk from="2_1" to="1_4"/>
            </personFlow>
            <personFlow id="person_EW_n" begin="0" end="600" period="exp(0.116)" departPos="100">
                <walk from="4_1" to="1_2"/>
            </personFlow>
            <personFlow id="person_NS_w" begin="0" end="600" period="exp(0.052)" departPos="100">
                <walk from="5_1" to="1_3"/>
            </personFlow>
            <personFlow id="person_SN_e" begin="0" end="600" period="exp(0.021)" departPos="100">
                <walk from="3_1" to="1_5"/>
            </personFlow>
            <personFlow id="person_NW_diag" begin="0" end="600" period="exp(0.035)" departPos="100">
                <walk from="5_1" to="1_2"/>
            </personFlow>
            <personFlow id="person_SW_diag" begin="0" end="600" period="exp(0.008)" departPos="100">
                <walk from="3_1" to="1_2"/>
            </personFlow>
            <personFlow id="person_SE_diag" begin="0" end="600" period="exp(0.03)" departPos="100">
                <walk from="3_1" to="1_4"/>
            </personFlow>
            <personFlow id="person_NE_diag" begin="0" end="600" period="exp(0.017)" departPos="100">
                <walk from="5_1" to="1_4"/>
            </personFlow>
</routes>
